WEAP    DH_AH0 Water Evaluation And Planning S_IH1_S_T_AH0_M IH1_Z AH0 Windows B_EY1_S_T D_IH0_S_IH1_ZH_AH0_N S_AH0_P_AO1_R_T S_IH1_S_T_AH0_M F_AO1_R IH1_N_T_AH0_G_R_EY2_T_AH0_D W_AO1_T_ER0 R_IY1_S_AO0_R_S_IH0_Z M_AE1_N_AH0_JH_M_AH0_N_T AH0_N_D P_AA1_L_AH0_S_IY0 AE0_N_AE1_L_IH0_S_IH0_S    WEAP IH1_Z AH0 M_AA1_D_AH0_L B_IH1_L_D_IH0_NG T_UW1_L    Y_UW1_Z_D T_UW1 K_R_IY0_EY1_T S_IH2_M_Y_UW0_L_EY1_SH_AH0_N_Z AH1_V W_AO1_T_ER0 D_IH0_M_AE1_N_D    S_AH0_P_L_AY1    R_AH1_N_AO2_F    evapotranspiration    IH2_N_F_IH0_L_T_R_EY1_SH_AH0_N    K_R_AA1_P IH2_R_AH0_G_EY1_SH_AH0_N R_IH0_K_W_AY1_R_M_AH0_N_T_S    instream F_L_OW1 R_IH0_K_W_AY1_R_M_AH0_N_T_S    IY1_K_OW0_S_IH2_S_T_AH0_M S_ER1_V_AH0_S_AH0_Z    G_R_AW1_N_D_W_AA2_T_ER0 AH0_N_D S_ER1_F_AH0_S S_T_AO1_R_AH0_JH    R_EH1_Z_AH0_V_W_AA2_R AA2_P_ER0_EY1_SH_AH0_N_Z    AH0_N_D P_AH0_L_UW1_SH_AH0_N JH_EH2_N_ER0_EY1_SH_AH0_N    T_R_IY1_T_M_AH0_N_T    D_IH0_S_CH_AA1_R_JH AH0_N_D instream W_AO1_T_ER0 K_W_AA1_L_AH0_T_IY0    AO1_L AH1_N_D_ER0 S_IH0_N_EH1_R_IY0_OW0_Z AH1_V V_EH1_R_IY0_IH0_NG P_AA1_L_AH0_S_IY0    hydrology    K_L_AY1_M_AH0_T    L_AE1_N_D Y_UW1_S    T_EH0_K_N_AA1_L_AH0_JH_IY0 AH0_N_D S_OW1_S_IY0_OW0 EH2_K_AH0_N_AA1_M_IH0_K F_AE1_K_T_ER0_Z    WEAP K_AE1_N dynamically L_IH1_NG_K T_UW1 DH_AH0 USGS MODFLOW G_R_AW1_N_D_W_AA2_T_ER0 F_L_OW1 M_AA1_D_AH0_L AH0_N_D DH_AH0 US EPA QUAL2K S_ER1_F_AH0_S W_AO1_T_ER0 K_W_AA1_L_AH0_T_IY0 M_AA1_D_AH0_L WEAP W_AA1_Z K_R_IY0_EY1_T_AH0_D IH0_N 1988     AH0_N_D K_AH0_N_T_IH1_N_Y_UW0_Z T_UW1 B_IY1 D_IH0_V_EH1_L_AH0_P_T AH0_N_D S_AH0_P_AO1_R_T_AH0_D B_AY1 DH_AH0 Center AH1_V DH_AH0 Stockholm Environment Institute    AH0 N_AA1_N P_R_AA1_F_AH0_T R_IY0_S_ER1_CH IH1_N_S_T_IH0_T_UW2_T B_EY1_S_T AE1_T Tufts University IH0_N Somerville    Massachusetts    It IH1_Z W_AY1_D_L_IY0 Y_UW1_Z_D F_AO1_R K_L_AY1_M_AH0_T CH_EY1_N_JH AE2_D_AH0_P_T_EY1_SH_AH0_N S_T_AH1_D_IY0_Z    AH0_N_D HH_AE1_Z B_IH1_N AH0_P_L_AY1_D B_AY1 R_IY1_S_ER0_CH_ER0_Z AH0_N_D P_L_AE1_N_ER0_Z IH0_N HH_AH1_N_D_R_AH0_D_Z AH1_V AO2_R_G_AH0_N_AH0_Z_EY1_SH_AH0_N_Z W_ER1_L_D_W_AY1_D     WEAP IH1_Z D_IH0_S_T_R_IH1_B_Y_AH0_T_AH0_D AE1_T N_OW1 CH_AA1_R_JH T_UW1 N_AA1_N P_R_AA1_F_AH0_T    AE2_K_AH0_D_EH1_M_IH0_K AH0_N_D G_AH1_V_ER0_M_EH2_N_T_AH0_L AO2_R_G_AH0_N_AH0_Z_EY1_SH_AH0_N_Z B_EY1_S_T IH0_N D_IH0_V_EH1_L_AH0_P_IH0_NG K_AH1_N_T_R_IY0_Z    